<?xml version="1.0" encoding="UTF-8"?>

<!-- generated on 2023-08-21 14:57:51 by Eclipse SUMO netedit Version v1_16_0+2321-723162e4f9a
<configuration xmlns:xsi="http://www.w3.org/2001/XMLSchema-instance" xsi:noNamespaceSchemaLocation="http://sumo.dlr.de/xsd/netconvertConfiguration.xsd">

    <input>
        <sumocfg-file value="D:\final\final.sumocfg"/>
        <additional-files value="D:\final\final.add.xml"/>
        <route-files value="D:\final\final.rou.xml"/>
        <sumo-net-file value="D:\final\final.net.xml"/>
    </input>

    <output>
        <output-file value="D:\final\final.net.xml"/>
    </output>

    <processing>
        <geometry.min-radius.fix.railways value="false"/>
        <geometry.max-grade.fix value="false"/>
        <offset.disable-normalization value="true"/>
        <lefthand value="0"/>
    </processing>

    <junctions>
        <no-turnarounds value="true"/>
        <junctions.corner-detail value="5"/>
        <junctions.limit-turn-speed value="5.50"/>
        <rectangular-lane-cut value="0"/>
    </junctions>

    <pedestrian>
        <walkingareas value="0"/>
    </pedestrian>

    <netedit>
        <new-network value="false"/>
    </netedit>

</configuration>
-->

<net version="1.16" junctionCornerDetail="5" limitTurnSpeed="5.50" xmlns:xsi="http://www.w3.org/2001/XMLSchema-instance" xsi:noNamespaceSchemaLocation="http://sumo.dlr.de/xsd/net_file.xsd">

    <location netOffset="0.00,0.00" convBoundary="-186.64,-128.89,292.76,159.74" origBoundary="-10000000000.00,-10000000000.00,10000000000.00,10000000000.00" projParameter="!"/>

    <edge id=":J10_0" function="internal">
        <lane id=":J10_0_0" index="0" speed="5.89" length="11.33" shape="-130.31,-66.73 -132.26,-70.40 -134.09,-72.01 -135.81,-71.57 -137.42,-69.08"/>
    </edge>
    <edge id=":J10_1" function="internal">
        <lane id=":J10_1_0" index="0" speed="13.89" length="20.85" shape="-130.31,-66.73 -132.01,-71.09 -133.86,-76.57 -135.36,-82.13 -136.01,-86.71"/>
    </edge>
    <edge id=":J10_2" function="internal">
        <lane id=":J10_2_0" index="0" speed="9.06" length="2.78" shape="-130.31,-66.73 -130.62,-69.49"/>
    </edge>
    <edge id=":J10_3" function="internal">
        <lane id=":J10_3_0" index="0" speed="7.51" length="2.16" shape="-130.31,-66.73 -130.36,-68.89"/>
    </edge>
    <edge id=":J10_20" function="internal">
        <lane id=":J10_20_0" index="0" speed="9.06" length="24.07" shape="-130.62,-69.49 -131.05,-73.24 -127.39,-77.00 -120.74,-78.35 -112.51,-77.65"/>
    </edge>
    <edge id=":J10_21" function="internal">
        <lane id=":J10_21_0" index="0" speed="7.51" length="19.14" shape="-130.36,-68.89 -130.41,-71.37 -126.68,-73.26 -120.86,-72.77 -114.72,-70.25"/>
    </edge>
    <edge id=":J10_4" function="internal">
        <lane id=":J10_4_0" index="0" speed="6.59" length="16.01" shape="-116.37,-67.50 -122.50,-70.80 -126.37,-71.98 -128.00,-71.04 -127.36,-67.99"/>
    </edge>
    <edge id=":J10_5" function="internal">
        <lane id=":J10_5_0" index="0" speed="9.77" length="23.73" shape="-116.37,-67.50 -124.13,-71.47 -130.23,-73.06 -134.66,-72.26 -137.42,-69.08"/>
    </edge>
    <edge id=":J10_6" function="internal">
        <lane id=":J10_6_0" index="0" speed="13.89" length="28.23" shape="-116.37,-67.50 -124.91,-73.10 -131.04,-78.16 -134.73,-82.70 -136.01,-86.71"/>
    </edge>
    <edge id=":J10_7" function="internal">
        <lane id=":J10_7_0" index="0" speed="6.09" length="15.00" shape="-116.37,-67.50 -118.78,-70.56 -118.60,-74.16 -116.34,-76.98 -112.51,-77.65"/>
    </edge>
    <edge id=":J10_8" function="internal">
        <lane id=":J10_8_0" index="0" speed="5.86" length="13.74" shape="-113.10,-74.51 -117.97,-75.14 -119.86,-74.64 -118.78,-73.01 -114.72,-70.25"/>
    </edge>
    <edge id=":J10_9" function="internal">
        <lane id=":J10_9_0" index="0" speed="7.98" length="20.45" shape="-113.10,-74.51 -120.95,-75.41 -125.94,-74.63 -128.08,-72.15 -127.36,-67.99"/>
    </edge>
    <edge id=":J10_10" function="internal">
        <lane id=":J10_10_0" index="0" speed="11.84" length="26.68" shape="-113.10,-74.51 -122.21,-75.60 -129.30,-75.06 -134.37,-72.88 -137.42,-69.08"/>
    </edge>
    <edge id=":J10_11" function="internal">
        <lane id=":J10_11_0" index="0" speed="11.85" length="5.74" shape="-113.10,-74.51 -118.68,-75.84"/>
    </edge>
    <edge id=":J10_22" function="internal">
        <lane id=":J10_22_0" index="0" speed="11.85" length="21.62" shape="-118.68,-75.84 -123.07,-76.88 -130.22,-79.71 -134.53,-82.98 -136.01,-86.71"/>
    </edge>
    <edge id=":J10_12" function="internal">
        <lane id=":J10_12_0" index="0" speed="10.93" length="23.14" shape="-132.81,-86.77 -131.51,-84.21 -127.69,-81.84 -121.36,-79.65 -112.51,-77.65"/>
    </edge>
    <edge id=":J10_13" function="internal">
        <lane id=":J10_13_0" index="0" speed="13.70" length="25.05" shape="-132.81,-86.77 -131.64,-83.59 -128.24,-79.78 -122.60,-75.33 -114.72,-70.25"/>
    </edge>
    <edge id=":J10_14" function="internal">
        <lane id=":J10_14_0" index="0" speed="13.89" length="19.62" shape="-132.81,-86.77 -132.20,-82.37 -130.79,-77.23 -129.03,-72.16 -127.36,-67.99"/>
    </edge>
    <edge id=":J10_15" function="internal">
        <lane id=":J10_15_0" index="0" speed="13.89" length="18.38" shape="-132.81,-86.77 -133.21,-82.54 -134.33,-77.76 -135.83,-73.07 -137.42,-69.08"/>
    </edge>
    <edge id=":J10_16" function="internal">
        <lane id=":J10_16_0" index="0" speed="13.89" length="17.02" shape="-140.34,-70.36 -138.81,-74.15 -137.39,-78.38 -136.37,-82.69 -136.01,-86.71"/>
    </edge>
    <edge id=":J10_17" function="internal">
        <lane id=":J10_17_0" index="0" speed="12.73" length="30.96" shape="-140.34,-70.36 -136.70,-75.16 -130.84,-77.97 -122.78,-78.80 -112.51,-77.65"/>
    </edge>
    <edge id=":J10_18" function="internal">
        <lane id=":J10_18_0" index="0" speed="10.88" length="9.86" shape="-140.34,-70.36 -136.19,-75.62 -133.10,-76.27"/>
    </edge>
    <edge id=":J10_19" function="internal">
        <lane id=":J10_19_0" index="0" speed="7.69" length="9.33" shape="-140.34,-70.36 -137.26,-75.39 -134.07,-76.66"/>
    </edge>
    <edge id=":J10_23" function="internal">
        <lane id=":J10_23_0" index="0" speed="10.88" length="19.85" shape="-133.10,-76.27 -130.45,-76.83 -123.25,-74.77 -114.72,-70.25"/>
    </edge>
    <edge id=":J10_24" function="internal">
        <lane id=":J10_24_0" index="0" speed="7.69" length="11.20" shape="-134.07,-76.66 -130.77,-74.20 -127.36,-67.99"/>
    </edge>
    <edge id=":J11_0" function="internal">
        <lane id=":J11_0_0" index="0" speed="11.52" length="13.92" shape="-32.84,-53.32 -35.00,-56.39 -37.52,-58.76 -40.40,-60.44 -43.63,-61.43"/>
    </edge>
    <edge id=":J11_1" function="internal">
        <lane id=":J11_1_0" index="0" speed="7.51" length="15.79" shape="-32.84,-53.32 -34.57,-57.57 -34.27,-60.87 -31.93,-63.21 -27.56,-64.60"/>
    </edge>
    <edge id=":J11_2" function="internal">
        <lane id=":J11_2_0" index="0" speed="5.87" length="9.12" shape="-27.03,-61.44 -29.55,-60.64 -30.90,-59.29 -31.07,-57.39 -30.08,-54.93"/>
    </edge>
    <edge id=":J11_3" function="internal">
        <lane id=":J11_3_0" index="0" speed="13.89" length="16.67" shape="-27.03,-61.44 -31.01,-60.96 -35.34,-60.77 -39.66,-60.92 -43.63,-61.43"/>
    </edge>
    <edge id=":J11_4" function="internal">
        <lane id=":J11_4_0" index="0" speed="10.03" length="14.13" shape="-40.04,-69.54 -37.41,-66.89 -34.46,-65.19 -31.18,-64.42 -27.56,-64.60"/>
    </edge>
    <edge id=":J11_5" function="internal">
        <lane id=":J11_5_0" index="0" speed="13.89" length="17.69" shape="-40.04,-69.54 -37.53,-66.21 -34.84,-62.38 -32.26,-58.49 -30.08,-54.93"/>
    </edge>
    <edge id=":J11_6" function="internal">
        <lane id=":J11_6_0" index="0" speed="6.55" length="15.16" shape="-40.04,-69.54 -37.20,-65.16 -36.86,-62.35 -39.00,-61.11 -43.63,-61.43"/>
    </edge>
    <edge id=":J11_7" function="internal">
        <lane id=":J11_7_0" index="0" speed="13.89" length="15.55" shape="-43.04,-64.57 -39.24,-64.07 -35.31,-63.92 -31.37,-64.11 -27.56,-64.60"/>
    </edge>
    <edge id=":J11_8" function="internal">
        <lane id=":J11_8_0" index="0" speed="12.57" length="4.09" shape="-43.04,-64.57 -39.13,-63.39"/>
    </edge>
    <edge id=":J11_9" function="internal">
        <lane id=":J11_9_0" index="0" speed="12.57" length="12.58" shape="-39.13,-63.39 -35.67,-61.38 -32.65,-58.57 -30.08,-54.93"/>
    </edge>
    <edge id=":J12_0" function="internal">
        <lane id=":J12_0_0" index="0" speed="8.32" length="13.68" shape="68.12,-71.35 64.41,-72.89 61.13,-73.15 58.26,-72.15 55.82,-69.88"/>
    </edge>
    <edge id=":J12_1" function="internal">
        <lane id=":J12_1_0" index="0" speed="13.89" length="15.95" shape="68.12,-71.35 64.58,-73.05 60.69,-74.37 56.70,-75.08 52.85,-74.95"/>
    </edge>
    <edge id=":J12_2" function="internal">
        <lane id=":J12_2_0" index="0" speed="13.89" length="16.49" shape="68.12,-71.35 64.56,-73.15 60.60,-74.79 56.54,-76.04 52.63,-76.70"/>
    </edge>
    <edge id=":J12_3" function="internal">
        <lane id=":J12_3_0" index="0" speed="11.82" length="15.50" shape="68.12,-71.35 64.64,-73.70 61.30,-76.69 58.70,-79.73 57.45,-82.25"/>
    </edge>
    <edge id=":J12_4" function="internal">
        <lane id=":J12_4_0" index="0" speed="5.56" length="9.39" shape="69.92,-80.60 67.46,-79.08 66.60,-77.50 67.34,-75.85 69.67,-74.15"/>
    </edge>
    <edge id=":J12_5" function="internal">
        <lane id=":J12_5_0" index="0" speed="13.89" length="17.84" shape="69.92,-80.60 66.23,-78.61 62.31,-75.95 58.67,-72.94 55.82,-69.88"/>
    </edge>
    <edge id=":J12_6" function="internal">
        <lane id=":J12_6_0" index="0" speed="13.89" length="18.02" shape="69.92,-80.60 66.03,-78.96 61.53,-77.31 56.95,-75.89 52.85,-74.95"/>
    </edge>
    <edge id=":J12_7" function="internal">
        <lane id=":J12_7_0" index="0" speed="13.89" length="13.69" shape="69.92,-80.60 66.00,-79.06 61.44,-77.73 56.79,-76.86"/>
    </edge>
    <edge id=":J12_8" function="internal">
        <lane id=":J12_8_0" index="0" speed="7.50" length="11.71" shape="69.92,-80.60 64.91,-78.77 61.16,-78.43 58.80,-79.54"/>
    </edge>
    <edge id=":J12_17" function="internal">
        <lane id=":J12_17_0" index="0" speed="13.89" length="4.17" shape="56.79,-76.86 52.63,-76.70"/>
    </edge>
    <edge id=":J12_18" function="internal">
        <lane id=":J12_18_0" index="0" speed="7.50" length="3.06" shape="58.80,-79.54 58.68,-79.59 57.45,-82.25"/>
    </edge>
    <edge id=":J12_9" function="internal">
        <lane id=":J12_9_0" index="0" speed="10.81" length="12.86" shape="60.60,-82.80 61.43,-80.76 63.22,-78.63 65.97,-76.43 69.67,-74.15"/>
    </edge>
    <edge id=":J12_10" function="internal">
        <lane id=":J12_10_0" index="0" speed="11.89" length="14.14" shape="60.60,-82.80 60.66,-79.95 59.88,-76.84 58.27,-73.49 55.82,-69.88"/>
    </edge>
    <edge id=":J12_11" function="internal">
        <lane id=":J12_11_0" index="0" speed="7.53" length="12.50" shape="60.60,-82.80 60.53,-79.93 59.22,-77.66 56.66,-76.00 52.85,-74.95"/>
    </edge>
    <edge id=":J12_12" function="internal">
        <lane id=":J12_12_0" index="0" speed="6.59" length="11.05" shape="60.60,-82.80 60.07,-80.42 58.08,-78.42 55.36,-77.08 52.63,-76.70"/>
    </edge>
    <edge id=":J12_13" function="internal">
        <lane id=":J12_13_0" index="0" speed="4.15" length="6.14" shape="52.45,-78.13 50.28,-77.67 49.58,-77.28 50.37,-76.95 52.63,-76.70"/>
    </edge>
    <edge id=":J12_14" function="internal">
        <lane id=":J12_14_0" index="0" speed="5.89" length="7.24" shape="52.45,-78.13 54.85,-78.74 56.48,-79.63 57.35,-80.80 57.45,-82.25"/>
    </edge>
    <edge id=":J12_15" function="internal">
        <lane id=":J12_15_0" index="0" speed="13.89" length="17.91" shape="52.45,-78.13 56.61,-78.20 61.27,-77.36 65.83,-75.91 69.67,-74.15"/>
    </edge>
    <edge id=":J12_16" function="internal">
        <lane id=":J12_16_0" index="0" speed="5.54" length="1.52" shape="52.45,-78.13 53.87,-77.60"/>
    </edge>
    <edge id=":J12_19" function="internal">
        <lane id=":J12_19_0" index="0" speed="5.54" length="8.68" shape="53.87,-77.60 54.47,-77.38 55.91,-75.07 56.47,-72.23 55.82,-69.88"/>
    </edge>
    <edge id=":J13_0" function="internal">
        <lane id=":J13_0_0" index="0" speed="7.78" length="8.29" shape="91.25,42.19 90.74,39.96 89.82,38.14 88.48,36.74 86.72,35.76"/>
    </edge>
    <edge id=":J13_1" function="internal">
        <lane id=":J13_1_0" index="0" speed="8.06" length="12.21" shape="91.25,42.19 91.29,38.93 92.30,36.27 94.26,34.22 97.19,32.77"/>
    </edge>
    <edge id=":J13_2" function="internal">
        <lane id=":J13_2_0" index="0" speed="6.55" length="7.77" shape="98.21,35.81 96.34,36.73 95.09,38.03 94.45,39.73 94.43,41.80"/>
    </edge>
    <edge id=":J13_3" function="internal">
        <lane id=":J13_3_0" index="0" speed="12.39" length="11.82" shape="98.21,35.81 95.07,36.73 92.43,37.06 89.81,36.76 86.72,35.76"/>
    </edge>
    <edge id=":J13_4" function="internal">
        <lane id=":J13_4_0" index="0" speed="11.23" length="9.64" shape="87.89,32.78 90.55,33.70 92.51,33.97 94.49,33.64 97.19,32.77"/>
    </edge>
    <edge id=":J13_5" function="internal">
        <lane id=":J13_5_0" index="0" speed="9.16" length="3.17" shape="87.89,32.78 90.44,34.18 90.62,34.37"/>
    </edge>
    <edge id=":J13_6" function="internal">
        <lane id=":J13_6_0" index="0" speed="9.16" length="8.56" shape="90.62,34.37 92.38,36.16 93.71,38.69 94.43,41.80"/>
    </edge>
    <edge id=":J14_0" function="internal">
        <lane id=":J14_0_0" index="0" speed="7.00" length="7.84" shape="-69.76,-25.94 -71.71,-26.42 -73.54,-26.27 -75.24,-25.48 -76.82,-24.06"/>
    </edge>
    <edge id=":J14_1" function="internal">
        <lane id=":J14_1_0" index="0" speed="13.89" length="11.87" shape="-69.76,-25.94 -72.74,-27.28 -74.98,-28.72 -76.90,-30.58 -78.92,-33.15"/>
    </edge>
    <edge id=":J14_2" function="internal">
        <lane id=":J14_2_0" index="0" speed="13.71" length="10.10" shape="-76.33,-35.03 -74.54,-32.65 -73.09,-31.16 -71.32,-30.08 -68.58,-28.92"/>
    </edge>
    <edge id=":J14_3" function="internal">
        <lane id=":J14_3_0" index="0" speed="8.07" length="3.41" shape="-76.33,-35.03 -74.81,-32.21 -74.78,-32.01"/>
    </edge>
    <edge id=":J14_6" function="internal">
        <lane id=":J14_6_0" index="0" speed="8.07" length="8.59" shape="-74.78,-32.01 -74.38,-29.45 -75.06,-26.73 -76.82,-24.06"/>
    </edge>
    <edge id=":J14_4" function="internal">
        <lane id=":J14_4_0" index="0" speed="6.56" length="7.64" shape="-79.23,-26.17 -78.11,-27.87 -77.68,-29.59 -77.95,-31.36 -78.92,-33.15"/>
    </edge>
    <edge id=":J14_5" function="internal">
        <lane id=":J14_5_0" index="0" speed="8.46" length="11.81" shape="-79.23,-26.17 -76.87,-28.28 -74.30,-29.44 -71.54,-29.66 -68.58,-28.92"/>
    </edge>
    <edge id=":J15_0" function="internal">
        <lane id=":J15_0_0" index="0" speed="5.46" length="9.85" shape="-87.32,-44.71 -89.46,-47.06 -91.12,-47.59 -92.32,-46.32 -93.05,-43.23"/>
    </edge>
    <edge id=":J15_1" function="internal">
        <lane id=":J15_1_0" index="0" speed="13.89" length="17.32" shape="-87.32,-44.71 -89.81,-48.00 -92.75,-51.50 -95.94,-54.73 -99.19,-57.20"/>
    </edge>
    <edge id=":J15_2" function="internal">
        <lane id=":J15_2_0" index="0" speed="13.89" length="18.59" shape="-97.54,-59.94 -94.15,-57.34 -90.63,-53.82 -87.37,-50.02 -84.73,-46.59"/>
    </edge>
    <edge id=":J15_3" function="internal">
        <lane id=":J15_3_0" index="0" speed="10.81" length="4.05" shape="-97.54,-59.94 -94.97,-57.52 -94.76,-57.05"/>
    </edge>
    <edge id=":J15_6" function="internal">
        <lane id=":J15_6_0" index="0" speed="10.81" length="14.17" shape="-94.76,-57.05 -93.36,-53.93 -92.72,-49.16 -93.05,-43.23"/>
    </edge>
    <edge id=":J15_4" function="internal">
        <lane id=":J15_4_0" index="0" speed="9.70" length="14.55" shape="-96.22,-43.62 -95.90,-48.59 -96.29,-52.51 -97.38,-55.38 -99.19,-57.20"/>
    </edge>
    <edge id=":J15_5" function="internal">
        <lane id=":J15_5_0" index="0" speed="7.45" length="19.77" shape="-96.22,-43.62 -94.76,-49.82 -92.36,-52.38 -89.02,-51.30 -84.73,-46.59"/>
    </edge>
    <edge id=":J16_0" function="internal">
        <lane id=":J16_0_0" index="0" speed="13.89" length="14.55" shape="264.27,129.20 250.83,123.65"/>
    </edge>
    <edge id=":J16_1" function="internal">
        <lane id=":J16_1_0" index="0" speed="8.01" length="4.18" shape="264.27,129.20 260.89,127.26 260.72,127.04"/>
    </edge>
    <edge id=":J16_6" function="internal">
        <lane id=":J16_6_0" index="0" speed="8.01" length="10.09" shape="260.72,127.04 258.94,124.70 258.44,121.52 259.37,117.70"/>
    </edge>
    <edge id=":J16_2" function="internal">
        <lane id=":J16_2_0" index="0" speed="6.52" length="9.09" shape="262.34,118.89 261.74,121.33 262.06,123.36 263.30,124.99 265.45,126.22"/>
    </edge>
    <edge id=":J16_3" function="internal">
        <lane id=":J16_3_0" index="0" speed="7.95" length="14.29" shape="262.34,118.89 260.38,122.30 257.80,124.22 254.62,124.67 250.83,123.65"/>
    </edge>
    <edge id=":J16_4" function="internal">
        <lane id=":J16_4_0" index="0" speed="6.45" length="9.03" shape="252.09,120.71 254.49,121.36 256.50,121.07 258.13,119.85 259.37,117.70"/>
    </edge>
    <edge id=":J16_5" function="internal">
        <lane id=":J16_5_0" index="0" speed="13.89" length="14.45" shape="252.09,120.71 265.45,126.22"/>
    </edge>
    <edge id=":J17_0" function="internal">
        <lane id=":J17_0_0" index="0" speed="13.89" length="16.93" shape="293.43,29.08 293.61,33.13 293.39,37.55 292.73,41.91 291.59,45.78"/>
    </edge>
    <edge id=":J17_1" function="internal">
        <lane id=":J17_1_0" index="0" speed="7.42" length="5.39" shape="293.43,29.08 293.25,34.02 293.03,34.41"/>
    </edge>
    <edge id=":J17_6" function="internal">
        <lane id=":J17_6_0" index="0" speed="7.42" length="11.20" shape="293.03,34.41 291.54,36.90 288.30,37.70 283.51,36.43"/>
    </edge>
    <edge id=":J17_2" function="internal">
        <lane id=":J17_2_0" index="0" speed="5.70" length="9.21" shape="284.74,33.47 287.39,34.18 289.20,33.74 290.15,32.14 290.24,29.39"/>
    </edge>
    <edge id=":J17_3" function="internal">
        <lane id=":J17_3_0" index="0" speed="8.49" length="15.95" shape="284.74,33.47 288.95,35.82 291.50,38.65 292.38,41.97 291.59,45.78"/>
    </edge>
    <edge id=":J17_4" function="internal">
        <lane id=":J17_4_0" index="0" speed="7.11" length="10.86" shape="288.62,44.59 289.07,42.14 288.38,39.96 286.52,38.06 283.51,36.43"/>
    </edge>
    <edge id=":J17_5" function="internal">
        <lane id=":J17_5_0" index="0" speed="13.89" length="15.42" shape="288.62,44.59 289.72,40.96 290.31,37.12 290.46,33.21 290.24,29.39"/>
    </edge>
    <edge id=":J18_0" function="internal">
        <lane id=":J18_0_0" index="0" speed="9.94" length="22.75" shape="-136.61,-123.09 -135.42,-126.33 -131.75,-128.64 -125.59,-130.03 -116.95,-130.49"/>
    </edge>
    <edge id=":J18_1" function="internal">
        <lane id=":J18_1_0" index="0" speed="8.37" length="21.68" shape="-136.61,-123.09 -135.05,-126.54 -130.84,-126.85 -124.91,-124.94 -118.21,-121.69"/>
    </edge>
    <edge id=":J18_2" function="internal">
        <lane id=":J18_2_0" index="0" speed="4.29" length="6.64" shape="-117.61,-123.29 -119.99,-123.72 -120.88,-123.60 -120.29,-122.92 -118.21,-121.69"/>
    </edge>
    <edge id=":J18_3" function="internal">
        <lane id=":J18_3_0" index="0" speed="7.99" length="16.72" shape="-117.61,-123.29 -124.54,-124.63 -129.49,-125.05 -132.44,-124.55 -133.41,-123.14"/>
    </edge>
    <edge id=":J18_4" function="internal">
        <lane id=":J18_4_0" index="0" speed="5.03" length="10.09" shape="-117.61,-123.29 -119.72,-124.79 -120.25,-127.22 -119.30,-129.49 -116.95,-130.49"/>
    </edge>
    <edge id=":J18_5" function="internal">
        <lane id=":J18_5_0" index="0" speed="5.88" length="13.12" shape="-116.95,-127.29 -121.44,-126.94 -123.14,-125.89 -122.06,-124.14 -118.21,-121.69"/>
    </edge>
    <edge id=":J18_6" function="internal">
        <lane id=":J18_6_0" index="0" speed="8.86" length="17.85" shape="-116.95,-127.29 -124.18,-127.03 -129.33,-126.25 -132.40,-124.96 -133.41,-123.14"/>
    </edge>
    <edge id=":J19_0" function="internal">
        <lane id=":J19_0_0" index="0" speed="7.29" length="10.06" shape="50.71,-120.83 49.88,-123.65 48.52,-125.67 46.64,-126.89 44.23,-127.29"/>
    </edge>
    <edge id=":J19_1" function="internal">
        <lane id=":J19_1_0" index="0" speed="7.69" length="15.00" shape="50.71,-120.83 50.58,-125.06 51.90,-128.05 54.66,-129.79 58.86,-130.29"/>
    </edge>
    <edge id=":J19_2" function="internal">
        <lane id=":J19_2_0" index="0" speed="6.12" length="9.06" shape="58.78,-127.09 56.24,-126.79 54.58,-125.74 53.78,-123.93 53.86,-121.38"/>
    </edge>
    <edge id=":J19_3" function="internal">
        <lane id=":J19_3_0" index="0" speed="13.89" length="14.55" shape="58.78,-127.09 44.23,-127.29"/>
    </edge>
    <edge id=":J19_4" function="internal">
        <lane id=":J19_4_0" index="0" speed="13.89" length="14.63" shape="44.23,-130.49 58.86,-130.29"/>
    </edge>
    <edge id=":J19_5" function="internal">
        <lane id=":J19_5_0" index="0" speed="8.66" length="3.90" shape="44.23,-130.49 47.85,-129.92 48.05,-129.79"/>
    </edge>
    <edge id=":J19_6" function="internal">
        <lane id=":J19_6_0" index="0" speed="8.66" length="10.69" shape="48.05,-129.79 50.65,-128.21 52.66,-125.36 53.86,-121.38"/>
    </edge>
    <edge id=":J2_0" function="internal">
        <lane id=":J2_0_0" index="0" speed="13.89" length="17.75" shape="-92.80,101.60 -96.90,101.04 -101.36,99.60 -105.65,97.62 -109.24,95.44"/>
    </edge>
    <edge id=":J2_1" function="internal">
        <lane id=":J2_1_0" index="0" speed="8.63" length="4.51" shape="-92.80,101.60 -96.65,100.86 -97.11,100.49"/>
    </edge>
    <edge id=":J2_6" function="internal">
        <lane id=":J2_6_0" index="0" speed="8.63" length="12.15" shape="-97.11,100.49 -99.40,98.66 -101.05,94.98 -101.60,89.82"/>
    </edge>
    <edge id=":J2_2" function="internal">
        <lane id=":J2_2_0" index="0" speed="7.27" length="11.53" shape="-98.40,89.82 -98.05,93.58 -97.00,96.26 -95.25,97.86 -92.80,98.40"/>
    </edge>
    <edge id=":J2_3" function="internal">
        <lane id=":J2_3_0" index="0" speed="7.38" length="17.51" shape="-98.40,89.82 -99.08,95.15 -101.11,97.86 -104.50,97.96 -109.24,95.44"/>
    </edge>
    <edge id=":J2_4" function="internal">
        <lane id=":J2_4_0" index="0" speed="5.58" length="9.36" shape="-107.39,92.82 -104.86,94.17 -103.05,94.12 -101.96,92.67 -101.60,89.82"/>
    </edge>
    <edge id=":J2_5" function="internal">
        <lane id=":J2_5_0" index="0" speed="13.89" length="15.83" shape="-107.39,92.82 -104.09,94.91 -100.44,96.69 -96.61,97.93 -92.80,98.40"/>
    </edge>
    <edge id=":J20_0" function="internal">
        <lane id=":J20_0_0" index="0" speed="7.09" length="12.25" shape="165.97,-117.65 164.70,-120.09 162.57,-121.27 159.58,-121.20 155.73,-119.87"/>
    </edge>
    <edge id=":J20_1" function="internal">
        <lane id=":J20_1_0" index="0" speed="9.04" length="14.28" shape="165.97,-117.65 164.57,-120.64 162.23,-122.81 158.95,-124.16 154.74,-124.69"/>
    </edge>
    <edge id=":J20_2" function="internal">
        <lane id=":J20_2_0" index="0" speed="7.60" length="15.37" shape="165.97,-117.65 165.42,-122.02 166.50,-125.12 169.22,-126.96 173.58,-127.55"/>
    </edge>
    <edge id=":J20_3" function="internal">
        <lane id=":J20_3_0" index="0" speed="5.99" length="9.08" shape="173.55,-124.35 170.98,-124.00 169.37,-122.91 168.73,-121.08 169.06,-118.50"/>
    </edge>
    <edge id=":J20_4" function="internal">
        <lane id=":J20_4_0" index="0" speed="13.89" length="18.48" shape="173.55,-124.35 169.30,-123.96 164.47,-122.90 159.73,-121.45 155.73,-119.87"/>
    </edge>
    <edge id=":J20_5" function="internal">
        <lane id=":J20_5_0" index="0" speed="13.89" length="18.82" shape="173.55,-124.35 154.74,-124.69"/>
    </edge>
    <edge id=":J20_6" function="internal">
        <lane id=":J20_6_0" index="0" speed="13.89" length="18.76" shape="154.82,-127.88 173.58,-127.55"/>
    </edge>
    <edge id=":J20_7" function="internal">
        <lane id=":J20_7_0" index="0" speed="10.20" length="18.40" shape="154.82,-127.88 160.11,-127.19 164.25,-125.39 167.23,-122.50 169.06,-118.50"/>
    </edge>
    <edge id=":J20_8" function="internal">
        <lane id=":J20_8_0" index="0" speed="6.98" length="19.57" shape="154.82,-127.88 161.43,-127.22 163.78,-125.66 161.88,-123.21 155.73,-119.87"/>
    </edge>
    <edge id=":J21_0" function="internal">
        <lane id=":J21_0_0" index="0" speed="3.91" length="2.38" shape="275.20,-122.06 275.05,-122.69 274.74,-123.14 274.26,-123.41 273.62,-123.50"/>
    </edge>
    <edge id=":J21_1" function="internal">
        <lane id=":J21_1_0" index="0" speed="6.09" length="7.15" shape="273.65,-126.70 275.56,-126.42 276.99,-125.60 277.93,-124.26 278.39,-122.38"/>
    </edge>
    <edge id=":J22_0" function="internal">
        <lane id=":J22_0_0" index="0" speed="5.49" length="9.62" shape="-44.25,-83.94 -47.29,-83.82 -48.78,-82.87 -48.73,-81.10 -47.13,-78.51"/>
    </edge>
    <edge id=":J22_1" function="internal">
        <lane id=":J22_1_0" index="0" speed="7.98" length="17.27" shape="-44.25,-83.94 -49.90,-84.95 -53.43,-86.97 -54.84,-90.01 -54.14,-94.06"/>
    </edge>
    <edge id=":J22_2" function="internal">
        <lane id=":J22_2_0" index="0" speed="6.26" length="9.05" shape="-61.36,-91.38 -58.98,-90.52 -56.99,-90.68 -55.38,-91.86 -54.14,-94.06"/>
    </edge>
    <edge id=":J22_3" function="internal">
        <lane id=":J22_3_0" index="0" speed="13.89" length="19.26" shape="-61.36,-91.38 -57.71,-88.93 -53.75,-85.53 -50.04,-81.85 -47.13,-78.51"/>
    </edge>
    <edge id=":J23_0" function="internal">
        <lane id=":J23_0_0" index="0" speed="3.90" length="2.86" shape="-49.53,-106.02 -49.36,-106.80 -49.49,-107.42 -49.93,-107.87 -50.67,-108.16"/>
    </edge>
    <edge id=":J24_0" function="internal">
        <lane id=":J24_0_0" index="0" speed="6.08" length="7.82" shape="276.49,130.58 278.36,131.64 279.42,133.05 279.69,134.79 279.17,136.87"/>
    </edge>
    <edge id=":J24_1" function="internal">
        <lane id=":J24_1_0" index="0" speed="3.90" length="2.61" shape="276.21,135.65 276.38,134.96 276.29,134.38 275.94,133.91 275.32,133.56"/>
    </edge>
    <edge id=":J3_0" function="internal">
        <lane id=":J3_0_0" index="0" speed="13.89" length="11.20" shape="4.00,101.60 -7.20,101.60"/>
    </edge>
    <edge id=":J3_1" function="internal">
        <lane id=":J3_1_0" index="0" speed="8.23" length="1.52" shape="4.00,101.60 2.75,100.74"/>
    </edge>
    <edge id=":J3_7" function="internal">
        <lane id=":J3_7_0" index="0" speed="8.23" length="13.54" shape="2.75,100.74 1.94,100.20 0.15,96.74 -1.12,92.39 -1.60,88.27"/>
    </edge>
    <edge id=":J3_2" function="internal">
        <lane id=":J3_2_0" index="0" speed="5.47" length="9.74" shape="-7.16,90.58 -4.73,92.52 -2.99,92.78 -1.95,91.37 -1.60,88.27"/>
    </edge>
    <edge id=":J3_3" function="internal">
        <lane id=":J3_3_0" index="0" speed="12.23" length="13.83" shape="-7.16,90.58 -3.53,94.00 -0.46,96.44 2.05,97.91 4.00,98.40"/>
    </edge>
    <edge id=":J3_4" function="internal">
        <lane id=":J3_4_0" index="0" speed="6.11" length="12.55" shape="-7.16,90.58 -5.55,93.40 -4.83,97.06 -5.28,100.24 -7.20,101.60"/>
    </edge>
    <edge id=":J3_5" function="internal">
        <lane id=":J3_5_0" index="0" speed="7.65" length="12.89" shape="-7.20,98.40 -4.75,97.77 -3.00,95.87 -1.95,92.70 -1.60,88.27"/>
    </edge>
    <edge id=":J3_6" function="internal">
        <lane id=":J3_6_0" index="0" speed="13.89" length="11.20" shape="-7.20,98.40 4.00,98.40"/>
    </edge>
    <edge id=":J4_0" function="internal">
        <lane id=":J4_0_0" index="0" speed="13.89" length="23.45" shape="111.73,101.60 88.27,101.60"/>
    </edge>
    <edge id=":J4_1" function="internal">
        <lane id=":J4_1_0" index="0" speed="13.89" length="24.99" shape="111.73,101.60 105.69,100.98 99.97,99.13 94.56,96.05 89.46,91.72"/>
    </edge>
    <edge id=":J4_2" function="internal">
        <lane id=":J4_2_0" index="0" speed="10.59" length="23.22" shape="111.73,101.60 105.86,100.69 101.42,97.95 98.39,93.38 96.78,86.99"/>
    </edge>
    <edge id=":J4_3" function="internal">
        <lane id=":J4_3_0" index="0" speed="7.42" length="19.31" shape="111.73,101.60 105.59,100.91 102.79,98.84 103.31,95.40 107.16,90.58"/>
    </edge>
    <edge id=":J4_4" function="internal">
        <lane id=":J4_4_0" index="0" speed="5.47" length="9.74" shape="109.42,92.84 107.48,95.27 107.22,97.01 108.63,98.05 111.73,98.40"/>
    </edge>
    <edge id=":J4_5" function="internal">
        <lane id=":J4_5_0" index="0" speed="13.89" length="23.49" shape="109.42,92.84 104.82,96.67 99.76,99.41 94.24,101.05 88.27,101.60"/>
    </edge>
    <edge id=":J4_6" function="internal">
        <lane id=":J4_6_0" index="0" speed="10.01" length="22.78" shape="109.42,92.84 104.64,96.30 99.72,97.27 94.66,95.75 89.46,91.72"/>
    </edge>
    <edge id=":J4_7" function="internal">
        <lane id=":J4_7_0" index="0" speed="7.85" length="9.31" shape="109.42,92.84 104.65,96.45 101.34,96.66"/>